Version 4
SHEET 1 1140 740
WIRE 0 96 -464 96
WIRE 224 96 0 96
WIRE 304 96 224 96
WIRE 0 144 0 96
WIRE 224 144 224 96
WIRE 304 240 304 96
WIRE 224 256 224 224
WIRE 272 256 224 256
WIRE 512 272 336 272
WIRE 0 288 0 224
WIRE 272 288 0 288
WIRE -464 368 -464 96
WIRE 224 400 224 256
WIRE 400 400 224 400
WIRE 512 400 512 272
WIRE 512 400 480 400
WIRE 0 432 0 288
WIRE 224 432 224 400
WIRE -464 592 -464 448
WIRE -464 592 -544 592
WIRE 0 592 0 512
WIRE 0 592 -464 592
WIRE 224 592 224 512
WIRE 224 592 0 592
WIRE 304 592 304 304
WIRE 304 592 224 592
FLAG -544 592 0
SYMBOL res -16 128 R0
WINDOW 3 -16 -112 VRight 2
SYMATTR Value {R0*EXP(B*(1/(T + 273.15)-1/T0))}
SYMATTR InstName RT
SYMBOL voltage -464 352 R0
WINDOW 123 0 0 Left 0
WINDOW 39 0 0 Left 0
SYMATTR InstName V1
SYMATTR Value 3.3
SYMBOL res -16 416 R0
SYMATTR InstName Rlin
SYMATTR Value 2493
SYMBOL res 208 416 R0
WINDOW 3 36 68 Left 2
SYMATTR Value 2493
SYMATTR InstName R2
SYMBOL res 208 128 R0
SYMATTR InstName R1
SYMATTR Value 4023
SYMBOL res 496 384 R90
WINDOW 0 0 56 VBottom 2
WINDOW 3 28 56 VBottom 2
SYMATTR InstName R3
SYMATTR Value 2294
SYMBOL OpAmps\\LT6202 304 272 R0
SYMATTR InstName U2
TEXT -720 48 Left 2 !.param R0=50k T0=298.15 B=3966 T=0
TEXT -720 88 Left 2 !.step param T 40 160 1
TEXT -720 664 Left 2 !.op 1
